
     RDKit          3D

 17 19  0  0  0  0  0  0  0  0999 V2000
   -8.3420    0.7700   10.9060 C   0  0  0  0  0  0  0  0  0  0  0  0
   -8.9390    1.3360   11.7190 O   0  0  0  0  0  0  0  0  0  0  0  0
   -8.5720    1.1660    9.5590 N   0  0  0  0  0  0  0  0  0  0  0  0
   -7.9870    0.4630    8.4020 C   0  0  0  0  0  0  0  0  0  0  0  0
   -8.9020    0.4920    7.1020 C   0  0  0  0  0  0  0  0  0  0  0  0
   -9.3380    1.9100    6.7390 C   0  0  0  0  0  0  0  0  0  0  0  0
   -9.9350    2.6600    8.0140 C   0  0  2  0  0  0  0  0  0  0  0  0
  -10.4130    4.0870    7.7420 C   0  0  0  0  0  0  0  0  0  0  0  0
   -9.5750    4.9330    6.9570 N   0  0  0  0  0  0  0  0  0  0  0  0
  -10.5090    5.9400    6.7600 C   0  0  0  0  0  0  0  0  0  0  0  0
  -10.2990    7.2300    6.0940 C   0  0  0  0  0  0  0  0  0  0  0  0
  -11.3740    8.1360    5.9220 C   0  0  0  0  0  0  0  0  0  0  0  0
  -12.5760    7.7500    6.5190 C   0  0  0  0  0  0  0  0  0  0  0  0
  -12.8810    6.5190    7.2020 C   0  0  0  0  0  0  0  0  0  0  0  0
  -11.7540    5.6590    7.3060 C   0  0  0  0  0  0  0  0  0  0  0  0
  -11.7120    4.4360    7.9030 N   0  0  0  0  0  0  0  0  0  0  0  0
   -8.9970    2.5740    9.2110 C   0  0  0  0  0  0  0  0  0  0  0  0
  1  2  1  6
  1  3  1  0
  3  4  1  0
  4  5  1  0
  5  6  1  0
  6  7  1  0
  7  8  1  6
  8  9  1  0
  9 10  1  0
 10 11  1  0
 11 12  1  0
 12 13  1  0
 13 14  1  0
 14 15  1  0
 15 16  1  0
  7 17  1  0
 17  3  1  0
 16  8  1  0
 15 10  1  0
M  END
$$$$
